Circuit: * C:\Users\raipr\OneDrive - International Institute of Information Technology\2022H2\Gitwork\EW2_Audio_Amp\BJT_Diff_amp_Gain_DE.asc

WARNING: Node OUT is floating.

WARNING: Less than two connections to node OUT.  This node is used by C4.
Direct Newton iteration for .op point succeeded.
Changing Tseed to 9.76562e-012

Date: Thu Jan 19 12:12:19 2023
Total elapsed time: 0.069 seconds.

tnom = 27
temp = 27
method = modified trap
totiter = 2196
traniter = 2182
tranpoints = 1044
accept = 1042
rejected = 1
matrix size = 44
fillins = 20
solver = Normal
Matrix Compiler1: 3.89 KB object code size  0.6/0.3/[0.3]
Matrix Compiler2: 3.98 KB object code size  0.3/0.4/[0.3]

