Circuit: * C:\Users\raipr\OneDrive - International Institute of Information Technology\2022H2\Gitwork\EW2_Audio_Amp\BJT_Diff_amp_Gain_DE_Buffer.asc

WARNING: Node OUT is floating.

WARNING: Less than two connections to node OUT.  This node is used by C4.
Direct Newton iteration for .op point succeeded.

Date: Thu Jan 19 11:54:46 2023
Total elapsed time: 0.062 seconds.

tnom = 27
temp = 27
method = modified trap
totiter = 2207
traniter = 2193
tranpoints = 1046
accept = 1045
rejected = 1
matrix size = 43
fillins = 16
solver = Normal
Matrix Compiler1: 3.69 KB object code size  0.6/0.3/[0.3]
Matrix Compiler2: off  [0.3]/0.4/0.3

