Circuit: * C:\Users\raipr\OneDrive - International Institute of Information Technology\2022H2\Gitwork\EW2_Audio_Amp\BJT_Diff_amp_Gain_DE_3_negIn.asc

WARNING: Node OUT is floating.
WARNING: Node N009 is floating.

WARNING: Less than two connections to node OUT.  This node is used by C4.
Direct Newton iteration for .op point succeeded.

Date: Mon Jan 23 12:44:46 2023
Total elapsed time: 0.042 seconds.

tnom = 27
temp = 27
method = trap
totiter = 19
traniter = 0
tranpoints = 0
accept = 0
rejected = 0
matrix size = 54
fillins = 18
solver = Normal
Matrix Compiler1:     254 opcodes
Matrix Compiler2: 4.79 KB object code size
