Circuit: * C:\Users\raipr\OneDrive - International Institute of Information Technology\2022H2\Gitwork\EW2_Audio_Amp\BJT_Diff_amp_activeLoad2.asc

WARNING: Node OUT+ is floating.

WARNING: Less than two connections to node OUT+.  This node is used by C1.
Direct Newton iteration for .op point succeeded.

Date: Mon Jan 09 11:18:37 2023
Total elapsed time: 0.166 seconds.

tnom = 27
temp = 27
method = trap
totiter = 6
traniter = 0
tranpoints = 0
accept = 0
rejected = 0
matrix size = 33
fillins = 14
solver = Normal
Matrix Compiler1:     159 opcodes
Matrix Compiler2: 2.97 KB object code size
