Circuit: * C:\Users\raipr\OneDrive - International Institute of Information Technology\2022H2\Gitwork\EW2_Audio_Amp\BJT_Diff_amp_Gain_DE_4_diff_in_negIn_Buffer_2.asc

WARNING: Node N017 is floating.
WARNING: Node N005 is floating.
WARNING: Node NC_01 is floating.
WARNING: Node NC_02 is floating.
WARNING: Node NC_03 is floating.

WARNING: Less than two connections to node NC_01.  This node is used by C8.
WARNING: Less than two connections to node NC_02.  This node is used by C10.
WARNING: Less than two connections to node NC_03.  This node is used by C13.
Direct Newton iteration for .op point succeeded.
Changing Tseed to 9.76563e-011
Changing Tseed to 9.76562e-013
Changing Tseed to 9.76562e-010

Date: Sun Feb 12 17:32:53 2023
Total elapsed time: 0.199 seconds.

tnom = 27
temp = 27
method = modified trap
totiter = 3984
traniter = 3976
tranpoints = 1362
accept = 1206
rejected = 153
matrix size = 48
fillins = 28
solver = Normal
Matrix Compiler1:     280 opcodes  2.2/[1.1]/1.2
Matrix Compiler2: off  [1.0]/1.4/1.1

