Circuit: * C:\Users\raipr\OneDrive - International Institute of Information Technology\2022H2\Gitwork\EW2_Audio_Amp\BJT_Diff_amp_Gain_DE_3_diff_in.asc

WARNING: Node NC_01 is floating.

WARNING: Less than two connections to node NC_01.  This node is used by C7.
Direct Newton iteration for .op point succeeded.

Date: Mon Feb 06 01:30:39 2023
Total elapsed time: 0.091 seconds.

tnom = 27
temp = 27
method = modified trap
totiter = 2243
traniter = 2231
tranpoints = 1042
accept = 1042
rejected = 0
matrix size = 60
fillins = 33
solver = Normal
Matrix Compiler1: 5.57 KB object code size  0.9/0.4/[0.4]
Matrix Compiler2: 5.73 KB object code size  0.4/0.6/[0.4]

