Circuit: * C:\Users\raipr\OneDrive - International Institute of Information Technology\2022H2\Gitwork\EW2_Audio_Amp\BJT_Diff_amp_Gain_DE_4_diff_in_negIn.asc

WARNING: Node NC_01 is floating.

WARNING: Less than two connections to node NC_01.  This node is used by C7.
Direct Newton iteration for .op point succeeded.

Date: Sun Feb 12 13:14:03 2023
Total elapsed time: 0.323 seconds.

tnom = 27
temp = 27
method = modified trap
totiter = 4212
traniter = 4194
tranpoints = 1635
accept = 1422
rejected = 213
matrix size = 60
fillins = 31
solver = Normal
Matrix Compiler1: 5.58 KB object code size  3.4/1.2/[1.3]
Matrix Compiler2: 5.83 KB object code size  1.2/2.1/[1.2]

