Circuit: * C:\Users\raipr\OneDrive - International Institute of Information Technology\2022H2\Gitwork\EW2_Audio_Amp\BJT_Diff_amp_Gain_DE_2.asc

WARNING: Node OUT is floating.

WARNING: Less than two connections to node OUT.  This node is used by C4.
Direct Newton iteration for .op point succeeded.

Date: Thu Jan 19 12:48:01 2023
Total elapsed time: 0.068 seconds.

tnom = 27
temp = 27
method = modified trap
totiter = 2129
traniter = 2124
tranpoints = 1046
accept = 1045
rejected = 1
matrix size = 48
fillins = 18
solver = Normal
Matrix Compiler1: 4.38 KB object code size  0.7/0.3/[0.3]
Matrix Compiler2: off  [0.3]/0.4/0.4

