Circuit: * C:\Users\raipr\OneDrive - International Institute of Information Technology\2022H2\Gitwork\EW2_Audio_Amp\BJT_Diff_amp_Gain_DE_4_diff_in_negIn_gain_high_filter_wrong.asc

WARNING: Node NC_01 is floating.

WARNING: Less than two connections to node NC_01.  This node is used by C7.
Direct Newton iteration for .op point succeeded.

Date: Sun Feb 12 13:22:39 2023
Total elapsed time: 0.263 seconds.

tnom = 27
temp = 27
method = modified trap
totiter = 2639
traniter = 2621
tranpoints = 1065
accept = 1052
rejected = 13
matrix size = 60
fillins = 31
solver = Normal
Matrix Compiler1: 5.58 KB object code size  2.9/1.3/[1.3]
Matrix Compiler2: 5.83 KB object code size  1.4/2.2/[1.1]

