Circuit: * C:\Users\raipr\OneDrive - International Institute of Information Technology\2022H2\Gitwork\EW2_Audio_Amp\BJT_Diff_amp_activeLoad4.asc

WARNING: Node OUT+ is floating.

WARNING: Less than two connections to node OUT+.  This node is used by C1.
Direct Newton iteration for .op point succeeded.

Date: Thu Jan 19 11:06:07 2023
Total elapsed time: 0.206 seconds.

tnom = 27
temp = 27
method = modified trap
totiter = 2167
traniter = 2153
tranpoints = 1042
accept = 1042
rejected = 0
matrix size = 35
fillins = 16
solver = Normal
Matrix Compiler1:     179 opcodes  1.8/[1.0]/1.2
Matrix Compiler2: off  [1.0]/1.2/1.6

