Circuit: * C:\Users\raipr\OneDrive - International Institute of Information Technology\2022H2\Gitwork\EW2_Audio_Amp\CE_gain_stage.asc

WARNING: Node OUT is floating.

WARNING: Less than two connections to node OUT.  This node is used by C1.
Direct Newton iteration for .op point succeeded.

Date: Thu Jan 19 10:43:21 2023
Total elapsed time: 0.230 seconds.

tnom = 27
temp = 27
method = modified trap
totiter = 2918
traniter = 2911
tranpoints = 1080
accept = 1052
rejected = 28
matrix size = 11
fillins = 0
solver = Normal
Matrix Compiler1: 610 bytes object code size  0.4/0.3/[0.3]
Matrix Compiler2: 835 bytes object code size  0.3/0.4/[0.2]

