Circuit: * C:\Users\rohan\OneDrive - International Institute of Information Technology (1)\Sem6\EW-2\aduio_amp\EW2_Audio_Amp\ClassA_amplifier.asc

Direct Newton iteration for .op point succeeded.

Date: Sun Feb 12 11:31:21 2023
Total elapsed time: 0.032 seconds.

tnom = 27
temp = 27
method = trap
totiter = 5
traniter = 0
tranpoints = 0
accept = 0
rejected = 0
matrix size = 18
fillins = 0
solver = Normal
Matrix Compiler1:      64 opcodes
Matrix Compiler2: 1.45 KB object code size
