Circuit: * C:\Users\raipr\OneDrive - International Institute of Information Technology\2022H2\Gitwork\EW2_Audio_Amp\Draft1.asc

Direct Newton iteration for .op point succeeded.

Date: Mon Jan 30 11:29:44 2023
Total elapsed time: 0.123 seconds.

tnom = 27
temp = 27
method = trap
totiter = 21
traniter = 0
tranpoints = 0
accept = 0
rejected = 0
matrix size = 12
fillins = 4
solver = Normal
Matrix Compiler1:      39 opcodes
Matrix Compiler2: 996 bytes object code size
