Circuit: * C:\Users\raipr\OneDrive - International Institute of Information Technology\2022H2\Gitwork\EW2_Audio_Amp\Filter1.asc

Direct Newton iteration for .op point succeeded.

Date: Mon Jan 30 12:35:07 2023
Total elapsed time: 0.076 seconds.

tnom = 27
temp = 27
method = trap
totiter = 12
traniter = 0
tranpoints = 0
accept = 0
rejected = 0
matrix size = 12
fillins = 2
solver = Normal
Matrix Compiler1:      40 opcodes
Matrix Compiler2: 1.11 KB object code size
