Circuit: * C:\Users\rohan\OneDrive - International Institute of Information Technology (1)\Sem6\EW-2\aduio_amp\EW2_Audio_Amp\filter.asc

Direct Newton iteration for .op point succeeded.

Date: Thu Feb 09 12:15:14 2023
Total elapsed time: 0.067 seconds.

tnom = 27
temp = 27
method = trap
totiter = 18
traniter = 0
tranpoints = 0
accept = 0
rejected = 0
matrix size = 12
fillins = 2
solver = Normal
Matrix Compiler1:      40 opcodes
Matrix Compiler2: 1.11 KB object code size
