Circuit: * C:\Users\rohan\OneDrive - International Institute of Information Technology (1)\Sem6\EW-2\aduio_amp\EW2_Audio_Amp\last_try.asc

WARNING: Node N019 is floating.
WARNING: Node NC_01 is floating.
WARNING: Node NC_02 is floating.

WARNING: Less than two connections to node NC_01.  This node is used by C8.
WARNING: Less than two connections to node NC_02.  This node is used by C10.
Direct Newton iteration failed to find .op point.  (Use ".option noopiter" to skip.)
Starting Gmin stepping
Gmin = 10
Gmin = 1.07374
Gmin = 0.115292
Gmin = 0.0123794
Gmin = 0.00132923
Gmin = 0.000142725
Gmin = 1.5325e-005
Gmin = 1.6455e-006
Gmin = 1.76685e-007
Gmin = 1.89714e-008
Gmin = 2.03704e-009
Gmin = 2.18725e-010
Gmin = 2.34854e-011
Gmin = 2.52173e-012
Gmin = 2.70769e-013
Gmin = 0
Gmin stepping succeeded in finding the operating point.

Changing Tseed to 1.36719e-010
Changing Tseed to 1.36719e-012
Changing Tseed to 1.36719e-009
Changing Tseed to 1.36719e-013
Changing Tseed to 1.36719e-008
Heightened Def Con from 1.36719e-008 to 1.46719e-008
Heightened Def Con from 1.46719e-008 to 1.56719e-008
Heightened Def Con from 1.58151e-008 +to 1.68151e-008
Heightened Def Con from 1.68151e-008 ++to 1.78151e-008

Date: Mon Feb 13 10:10:22 2023
Total elapsed time: 0.108 seconds.

tnom = 27
temp = 27
method = modified trap
totiter = 5676
traniter = 5247
tranpoints = 1689
accept = 1278
rejected = 413
matrix size = 56
fillins = 57
solver = Normal
Matrix Compiler1: 7.05 KB object code size  1.7/0.5/[0.5]
Matrix Compiler2: 6.17 KB object code size  0.5/0.6/[0.4]

