Circuit: * C:\Users\rohan\OneDrive - International Institute of Information Technology (1)\Sem6\EW-2\aduio_amp\EW2_Audio_Amp\salle_key_filter.asc

Direct Newton iteration for .op point succeeded.

Date: Mon Feb 13 02:18:59 2023
Total elapsed time: 0.047 seconds.

tnom = 27
temp = 27
method = trap
totiter = 21
traniter = 0
tranpoints = 0
accept = 0
rejected = 0
matrix size = 14
fillins = 9
solver = Normal
Matrix Compiler1:      63 opcodes
Matrix Compiler2: 1.46 KB object code size
