Circuit: * C:\Users\rohan\OneDrive - International Institute of Information Technology (1)\Sem6\EW-2\aduio_amp\EW2_Audio_Amp\BJT_Diff_amp_Gain_DE_4_diff_in_negIn_Buffer_2.asc

WARNING: Node N019 is floating.
WARNING: Node N006 is floating.
WARNING: Node NC_01 is floating.
WARNING: Node NC_02 is floating.
WARNING: Node NC_03 is floating.

WARNING: Less than two connections to node NC_01.  This node is used by C8.
WARNING: Less than two connections to node NC_02.  This node is used by C10.
WARNING: Less than two connections to node NC_03.  This node is used by C13.
Direct Newton iteration for .op point succeeded.

Date: Mon Feb 13 10:07:48 2023
Total elapsed time: 0.078 seconds.

tnom = 27
temp = 27
method = trap
totiter = 18
traniter = 0
tranpoints = 0
accept = 0
rejected = 0
matrix size = 54
fillins = 52
solver = Normal
Matrix Compiler1:     366 opcodes
Matrix Compiler2: 5.85 KB object code size
