Circuit: * C:\Users\raipr\OneDrive - International Institute of Information Technology\2022H2\Gitwork\EW2_Audio_Amp\BJT_Diff_amp_Gain_DE_2.asc

WARNING: Node OUT is floating.

WARNING: Less than two connections to node OUT.  This node is used by C4.
Direct Newton iteration for .op point succeeded.
Changing Tseed to 9.76562e-012

Date: Mon Jan 23 11:57:40 2023
Total elapsed time: 0.045 seconds.

tnom = 27
temp = 27
method = modified trap
totiter = 2251
traniter = 2245
tranpoints = 1048
accept = 1041
rejected = 6
matrix size = 46
fillins = 14
solver = Normal
Matrix Compiler1:     233 opcodes  0.6/[0.3]/0.3
Matrix Compiler2: off  [0.3]/0.4/0.3

