Circuit: * C:\Users\raipr\OneDrive - International Institute of Information Technology\2022H2\Gitwork\EW2_Audio_Amp\BJT_Diff_amp_Gain_DE_3.asc

WARNING: Node OUT is floating.

WARNING: Less than two connections to node OUT.  This node is used by C4.
Direct Newton iteration for .op point succeeded.

Date: Mon Jan 30 10:28:01 2023
Total elapsed time: 0.267 seconds.

tnom = 27
temp = 27
method = modified trap
totiter = 2645
traniter = 2640
tranpoints = 1086
accept = 1075
rejected = 11
matrix size = 50
fillins = 22
solver = Normal
Matrix Compiler1: 4.58 KB object code size  1.9/1.0/[1.0]
Matrix Compiler2: 4.58 KB object code size  0.8/1.3/[0.9]

