Circuit: * C:\Users\raipr\OneDrive - International Institute of Information Technology\2022H2\Gitwork\EW2_Audio_Amp\BJT_Diff_amp_activeLoad3asc.asc

WARNING: Node OUT+ is floating.

WARNING: Less than two connections to node OUT+.  This node is used by C1.
Direct Newton iteration for .op point succeeded.

Date: Mon Jan 09 12:07:53 2023
Total elapsed time: 0.059 seconds.

tnom = 27
temp = 27
method = modified trap
totiter = 3830
traniter = 3824
tranpoints = 1331
accept = 1201
rejected = 130
matrix size = 35
fillins = 16
solver = Normal
Matrix Compiler1:     179 opcodes  0.5/[0.3]/0.3
Matrix Compiler2: off  [0.2]/0.3/0.3

