Circuit: * C:\Users\raipr\OneDrive - International Institute of Information Technology\2022H2\Gitwork\EW2_Audio_Amp\BJT_Diff_amp_Gain_DE_4_diff_in.asc

WARNING: Node NC_01 is floating.

WARNING: Less than two connections to node NC_01.  This node is used by C7.
Direct Newton iteration for .op point succeeded.

Date: Thu Feb 09 10:39:36 2023
Total elapsed time: 0.270 seconds.

tnom = 27
temp = 27
method = modified trap
totiter = 2208
traniter = 2190
tranpoints = 1046
accept = 1045
rejected = 1
matrix size = 52
fillins = 27
solver = Normal
Matrix Compiler1: 4.64 KB object code size  3.1/1.5/[1.1]
Matrix Compiler2: 5.03 KB object code size  1.4/2.0/[1.1]

