Circuit: * C:\Users\raipr\OneDrive - International Institute of Information Technology\2022H2\Gitwork\EW2_Audio_Amp\BJT_Diff_amp_Gain_DE_4_diff_in_negIn_gain_low_filter_rightasc.asc

WARNING: Node N021 is floating.
WARNING: Node N007 is floating.
WARNING: Node NC_01 is floating.
WARNING: Node NC_02 is floating.
WARNING: Node NC_03 is floating.

WARNING: Less than two connections to node NC_01.  This node is used by C8.
WARNING: Less than two connections to node NC_02.  This node is used by C10.
WARNING: Less than two connections to node NC_03.  This node is used by C13.
Direct Newton iteration for .op point succeeded.

Date: Sun Feb 12 15:56:38 2023
Total elapsed time: 0.070 seconds.

tnom = 27
temp = 27
method = trap
totiter = 11
traniter = 0
tranpoints = 0
accept = 0
rejected = 0
matrix size = 60
fillins = 50
solver = Normal
Matrix Compiler1:     388 opcodes
Matrix Compiler2: 6.41 KB object code size
