Circuit: * C:\Users\raipr\OneDrive - International Institute of Information Technology\2022H2\Gitwork\EW2_Audio_Amp\BJT_Diff_amp_Gain_DE_4_diff_in_negIn_gain_low_filter_rightasc.asc

WARNING: Node N024 is floating.
WARNING: Node N009 is floating.
WARNING: Node N007 is floating.
WARNING: Node NC_01 is floating.
WARNING: Node NC_02 is floating.
WARNING: Node NC_03 is floating.
WARNING: Node NC_04 is floating.

WARNING: Less than two connections to node NC_01.  This node is used by C8.
WARNING: Less than two connections to node NC_02.  This node is used by C10.
WARNING: Less than two connections to node NC_03.  This node is used by C12.
WARNING: Less than two connections to node NC_04.  This node is used by C13.
Direct Newton iteration for .op point succeeded.
Changing Tseed to 9.76563e-011
Changing Tseed to 9.76562e-013
Changing Tseed to 9.76562e-010
Heightened Def Con from 9.76801e-010 to 2.9768e-009

Date: Sun Feb 12 15:28:49 2023
Total elapsed time: 0.134 seconds.

tnom = 27
temp = 27
method = modified trap
totiter = 2970
traniter = 2952
tranpoints = 1099
accept = 1065
rejected = 32
matrix size = 67
fillins = 34
solver = Normal
Thread vector: 5.3/3.4[2] 2.4/1.5[2] 0.9/0.8[1] 0.2/0.6[1]  2592/500
Matrix Compiler1: 6.76 KB object code size  1.1/0.5/[0.5]
Matrix Compiler2: off  [0.4]/0.7/0.5

