Circuit: * C:\Users\raipr\OneDrive - International Institute of Information Technology\2022H2\Gitwork\EW2_Audio_Amp\BJT_Diff_amp_activeLoad2.asc

WARNING: Node OUT+ is floating.

WARNING: Less than two connections to node OUT+.  This node is used by C1.
Direct Newton iteration for .op point succeeded.

Date: Mon Jan 09 11:40:45 2023
Total elapsed time: 0.412 seconds.

tnom = 27
temp = 27
method = modified trap
totiter = 2648
traniter = 2642
tranpoints = 1083
accept = 1053
rejected = 30
matrix size = 35
fillins = 16
solver = Normal
Matrix Compiler1: 3.18 KB object code size  1.8/1.0/[0.9]
Matrix Compiler2: 3.19 KB object code size  1.0/1.3/[0.8]

