Circuit: * C:\Users\raipr\OneDrive - International Institute of Information Technology\2022H2\Gitwork\EW2_Audio_Amp\BJT_Diff_amp_Gain_DE_4_diff_in_negIn_gain_high_filter_right_2nd_stage.asc

WARNING: Node N020 is floating.
WARNING: Node OUT is floating.

WARNING: Less than two connections to node OUT.  This node is used by C7.
Direct Newton iteration for .op point succeeded.
Changing Tseed to 9.76563e-011
Changing Tseed to 9.76562e-013
Changing Tseed to 9.76562e-010
Heightened Def Con from 1.95318e-009 to 2.08014e-009
Heightened Def Con from 2.08697e-009 +to 4.08697e-009
Heightened Def Con from 4.08705e-009 to 6.08705e-009
Heightened Def Con from 6.08855e-009 to 8.08855e-009

Date: Sun Feb 12 14:54:57 2023
Total elapsed time: 0.099 seconds.

tnom = 27
temp = 27
method = modified trap
totiter = 3641
traniter = 3623
tranpoints = 1175
accept = 1091
rejected = 86
matrix size = 53
fillins = 35
solver = Normal
Matrix Compiler1: 5.90 KB object code size  0.9/0.5/[0.4]
Matrix Compiler2: off  [0.4]/0.5/0.4

