Circuit: * C:\Users\raipr\OneDrive - International Institute of Information Technology\2022H2\Gitwork\EW2_Audio_Amp\Draft2.asc


Date: Mon Jan 30 11:55:19 2023
Total elapsed time: 0.028 seconds.

tnom = 27
temp = 27
method = trap
totiter = 0
traniter = 0
tranpoints = 0
accept = 0
rejected = 0
matrix size = 4
fillins = 0
solver = Normal

