Circuit: * C:\Users\raipr\OneDrive - International Institute of Information Technology\2022H2\Gitwork\EW2_Audio_Amp\Draft1.asc


Date: Mon Feb 06 02:20:05 2023
Total elapsed time: 0.036 seconds.

tnom = 27
temp = 27
method = trap
totiter = 419
traniter = 0
tranpoints = 0
accept = 0
rejected = 0
matrix size = 7
fillins = 0
solver = Normal
Matrix Compiler1: 312 bytes object code size  0.1/0.0/[0.0]
Matrix Compiler2: off  [0.0]/0.1/0.1

